1008

O 2.071606   2.898720   1.111067  
O 3.494447   13.786283  1.111277  
O 14.875516  1.065000   1.111204  
O 3.897326   0.858007   1.111131  
O 14.875231  1.064720   8.017377  
O 3.494164   13.786018  8.017450  
O 2.071321   2.898440   8.017240  
Cu 1.959341   0.961212   7.814265  
Cu 1.959634   0.961515   1.314253  
O 3.897042   0.857742   8.017304  
C 3.429442   13.290232  9.129540  
C 3.236360   11.812792  9.129622  
C 14.375293  1.055401   9.129485  
C 12.885568  1.027294   9.129604  
C 2.420140   5.565961   1.211464  
C 2.419895   5.565994   7.916935  
C 2.601306   6.954123   7.916971  
C 2.692039   7.648153   9.129430  
C 2.601596   6.954223   1.211537  
C 2.692114   7.648312   6.704576  
C 2.873550   9.036530   6.704567  
C 2.964197   9.730589   7.917044  
C 2.873494   9.036415   9.129504  
C 2.964462   9.730600   1.211656  
C 2.873674   9.036456   2.424142  
C 2.692243   7.648282   2.424014  
C 3.145628   11.118763  7.917172  
C 3.145918   11.118863  1.211738  
C 8.256262   14.458260  9.129421  
C 6.563840   2.120671   9.129294  
C 7.963513   2.147095   9.129367  
C 8.686260   0.948096   9.129449  
C 9.656080   14.484655  9.129458  
C 8.640574   3.372517   9.129230  
C 10.040341  3.398986   9.129284  
C 10.763101  2.199972   9.129467  
C 10.086062  0.974475   9.129485  
C 12.455587  14.537473  9.129567  
C 11.778563  13.311976  9.129686  
C 10.378838  13.285626  9.129631  
C 12.162838  2.226307   9.129522  
C 13.855389  14.563853  9.129604  
C 4.397013   0.867170   9.129367  
C 5.886753   0.895277   9.129339  
C 2.136090   3.394336   9.129312  
C 2.329173   4.871775   9.129312  
N 1.959311   0.961214   5.964254  
C 1.798303   14.107141  5.963834  
C 15.747996  13.299259  5.263631  
C 15.748038  13.299474  3.863645  
C 1.798543   14.107632  3.163834  
C 1.055640   0.153518   3.864037  
C 1.055471   0.153243   5.264051  
C 2.863461   1.769499   3.864457  
C 2.863368   1.769372   5.264444  
C 3.767533   2.577656   3.164647  
C 4.671372   3.385627   3.864850  
C 4.671267   3.385382   5.264918  
C 3.767258   2.577254   5.964647  
N 1.959586   0.961616   3.164263  
H 3.219749   11.683847  2.199080  
H 3.767057   2.577028   7.104584  
H 2.947669   9.601705   3.411320  
H 8.052021   4.348684   9.129038  
H 12.367198  12.335751  9.129659  
H 15.012086  12.641571  3.293548  
H 2.618301   7.082999   3.411147  
H 14.443753  13.587465  9.129732  
H 1.798612   14.107607  2.023897  
H 7.704979   13.460497  9.129567  
H 2.346161   5.000736   2.198633  
H 2.346116   5.000818   6.929803  
H 10.591444  4.396867   9.129211  
H 9.827499   12.287892  9.129714  
H 2.618319   7.083122   5.717462  
H 12.713989  3.224086   9.129339  
H 2.947421   9.601577   5.717298  
H 5.407402   4.043196   5.834942  
H 3.219667   11.683854  6.929985  
H 3.767565   2.577705   2.024709  
H 5.407451   4.043491   3.294954  
H 15.011947  12.641262  5.833572  
H 1.798096   14.106989  7.103771  
H 5.975304   3.096852   9.129120  
O 2.071371   2.898565   10.241374 
O 3.494212   13.786128  10.241584 
O 14.875281  1.064844   10.241511 
O 3.897090   0.857851   10.241438 
O 14.874996  1.064564   17.147684 
O 3.493929   13.785862  17.147757 
O 2.071085   2.898284   17.147547 
Cu 1.959106   0.961056   16.944572 
Cu 1.959399   0.961359   10.444560 
O 3.896807   0.857586   17.147611 
C 3.429207   13.290076  18.259847 
C 3.236125   11.812636  18.259929 
C 14.375058  1.055245   18.259792 
C 12.885333  1.027138   18.259911 
C 2.419905   5.565805   10.341771 
C 2.419660   5.565838   17.047242 
C 2.601071   6.953967   17.047278 
C 2.691803   7.647997   18.259737 
C 2.601361   6.954067   10.341844 
C 2.691879   7.648156   15.834883 
C 2.873315   9.036374   15.834874 
C 2.963961   9.730433   17.047351 
C 2.873259   9.036259   18.259811 
C 2.964227   9.730444   10.341963 
C 2.873439   9.036300   11.554449 
C 2.692007   7.648126   11.554321 
C 3.145393   11.118607  17.047479 
C 3.145682   11.118707  10.342045 
C 8.256027   14.458104  18.259728 
C 6.563605   2.120515   18.259601 
C 7.963278   2.146939   18.259674 
C 8.686025   0.947940   18.259756 
C 9.655845   14.484499  18.259765 
C 8.640338   3.372362   18.259537 
C 10.040106  3.398830   18.259591 
C 10.762865  2.199816   18.259774 
C 10.085827  0.974319   18.259792 
C 12.455352  14.537317  18.259874 
C 11.778328  13.311821  18.259993 
C 10.378603  13.285470  18.259938 
C 12.162603  2.226152   18.259829 
C 13.855153  14.563697  18.259911 
C 4.396778   0.867015   18.259674 
C 5.886518   0.895121   18.259646 
C 2.135855   3.394180   18.259619 
C 2.328938   4.871619   18.259619 
N 1.959076   0.961058   15.094561 
C 1.798068   14.106985  15.094141 
C 15.747761  13.299103  14.393938 
C 15.747803  13.299318  12.993952 
C 1.798308   14.107476  12.294141 
C 1.055404   0.153362   12.994344 
C 1.055236   0.153087   14.394358 
C 2.863225   1.769343   12.994764 
C 2.863133   1.769216   14.394751 
C 3.767297   2.577500   12.294954 
C 4.671137   3.385472   12.995157 
C 4.671032   3.385226   14.395225 
C 3.767022   2.577098   15.094954 
N 1.959351   0.961460   12.294570 
H 3.219514   11.683691  11.329387 
H 3.766821   2.576872   16.234891 
H 2.947433   9.601549   12.541627 
H 8.051786   4.348528   18.259345 
H 12.366963  12.335595  18.259966 
H 15.011851  12.641416  12.423855 
H 2.618066   7.082843   12.541454 
H 14.443518  13.587309  18.260039 
H 1.798377   14.107451  11.154204 
H 7.704743   13.460341  18.259874 
H 2.345925   5.000581   11.328940 
H 2.345881   5.000662   16.060110 
H 10.591209  4.396711   18.259518 
H 9.827264   12.287737  18.260021 
H 2.618084   7.082966   14.847769 
H 12.713754  3.223930   18.259646 
H 2.947186   9.601421   14.847605 
H 5.407167   4.043041   14.965249 
H 3.219432   11.683698  16.060292 
H 3.767330   2.577549   11.155016 
H 5.407216   4.043335   12.425261 
H 15.011712  12.641106  14.963879 
H 1.797860   14.106833  16.234078 
H 5.975069   3.096696   18.259427 
O 2.071135   2.898409   19.371681 
O 3.493977   13.785972  19.371891 
O 14.875046  1.064688   19.371818 
O 3.896855   0.857695   19.371745 
O 14.874761  1.064408   26.277991 
O 3.493694   13.785706  26.278064 
O 2.070850   2.898128   26.277854 
Cu 1.958871   0.960900   26.074879 
Cu 1.959163   0.961203   19.574867 
O 3.896572   0.857430   26.277918 
C 3.428972   13.289920  27.390154 
C 3.235890   11.812481  27.390236 
C 14.374823  1.055089   27.390099 
C 12.885098  1.026982   27.390218 
C 2.419670   5.565649   19.472078 
C 2.419425   5.565682   26.177549 
C 2.600836   6.953811   26.177585 
C 2.691568   7.647841   27.390044 
C 2.601126   6.953911   19.472151 
C 2.691644   7.648000   24.965190 
C 2.873080   9.036218   24.965181 
C 2.963726   9.730277   26.177658 
C 2.873024   9.036103   27.390118 
C 2.963991   9.730289   19.472270 
C 2.873203   9.036144   20.684756 
C 2.691772   7.647970   20.684628 
C 3.145157   11.118451  26.177786 
C 3.145447   11.118551  19.472352 
C 8.255791   14.457948  27.390035 
C 6.563370   2.120359   27.389908 
C 7.963043   2.146783   27.389981 
C 8.685789   0.947784   27.390063 
C 9.655610   14.484343  27.390072 
C 8.640103   3.372206   27.389844 
C 10.039870  3.398674   27.389898 
C 10.762630  2.199660   27.390081 
C 10.085591  0.974164   27.390099 
C 12.455116  14.537161  27.390181 
C 11.778092  13.311665  27.390300 
C 10.378368  13.285314  27.390245 
C 12.162368  2.225996   27.390136 
C 13.854918  14.563541  27.390218 
C 4.396543   0.866859   27.389981 
C 5.886283   0.894965   27.389953 
C 2.135620   3.394024   27.389926 
C 2.328703   4.871464   27.389926 
N 1.958841   0.960902   24.224868 
C 1.797833   14.106829  24.224448 
C 15.747525  13.298947  23.524245 
C 15.747568  13.299163  22.124259 
C 1.798073   14.107320  21.424448 
C 1.055169   0.153206   22.124651 
C 1.055001   0.152931   23.524665 
C 2.862990   1.769187   22.125071 
C 2.862898   1.769060   23.525058 
C 3.767062   2.577344   21.425261 
C 4.670902   3.385316   22.125464 
C 4.670797   3.385070   23.525532 
C 3.766787   2.576942   24.225261 
N 1.959116   0.961304   21.424877 
H 3.219279   11.683535  20.459694 
H 3.766586   2.576716   25.365198 
H 2.947198   9.601393   21.671934 
H 8.051550   4.348372   27.389652 
H 12.366728  12.335439  27.390273 
H 15.011616  12.641260  21.554162 
H 2.617830   7.082687   21.671761 
H 14.443283  13.587153  27.390346 
H 1.798142   14.107295  20.284511 
H 7.704508   13.460185  27.390181 
H 2.345690   5.000425   20.459247 
H 2.345646   5.000506   25.190417 
H 10.590974  4.396555   27.389825 
H 9.827029   12.287581  27.390328 
H 2.617849   7.082810   23.978076 
H 12.713519  3.223774   27.389953 
H 2.946951   9.601266   23.977912 
H 5.406932   4.042885   24.095556 
H 3.219197   11.683543  25.190599 
H 3.767095   2.577393   20.285323 
H 5.406981   4.043179   21.555568 
H 15.011476  12.640951  24.094186 
H 1.797625   14.106677  25.364385 
H 5.974833   3.096540   27.389734 
O 3.718384   17.660717  1.111067  
O 5.141226   28.548280  1.111277  
O 16.522295  15.826997  1.111204  
O 5.544104   15.620004  1.111131  
O 16.522010  15.826716  8.017377  
O 5.140942   28.548015  8.017450  
O 3.718099   17.660437  8.017240  
Cu 3.606119   15.723209  7.814265  
Cu 3.606412   15.723512  1.314253  
O 5.543820   15.619738  8.017304  
C 5.076221   28.052229  9.129540  
C 4.883138   26.574789  9.129622  
C 16.022072  15.817397  9.129485  
C 14.532347  15.789290  9.129604  
C 4.066919   20.327957  1.211464  
C 4.066673   20.327990  7.916935  
C 4.248085   21.716120  7.916971  
C 4.338817   22.410149  9.129430  
C 4.248375   21.716220  1.211537  
C 4.338893   22.410309  6.704576  
C 4.520329   23.798527  6.704567  
C 4.610975   24.492586  7.917044  
C 4.520273   23.798412  9.129504  
C 4.611240   24.492597  1.211656  
C 4.520452   23.798452  2.424142  
C 4.339021   22.410279  2.424014  
C 4.792406   25.880760  7.917172  
C 4.792696   25.880859  1.211738  
C 9.903040   29.220257  9.129421  
C 8.210618   16.882667  9.129294  
C 9.610292   16.909091  9.129367  
C 10.333038  15.710092  9.129449  
C 11.302859  29.246651  9.129458  
C 10.287352  18.134514  9.129230  
C 11.687119  18.160982  9.129284  
C 12.409879  16.961969  9.129467  
C 11.732840  15.736472  9.129485  
C 14.102365  29.299470  9.129567  
C 13.425341  28.073973  9.129686  
C 12.025617  28.047623  9.129631  
C 13.809617  16.988304  9.129522  
C 15.502167  29.325849  9.129604  
C 6.043792   15.629167  9.129367  
C 7.533532   15.657274  9.129339  
C 3.782869   18.156332  9.129312  
C 3.975951   19.633772  9.129312  
N 3.606090   15.723211  5.964254  
C 3.445081   28.869138  5.963834  
C 17.394774  28.061255  5.263631  
C 17.394817  28.061471  3.863645  
C 3.445322   28.869628  3.163834  
C 2.702418   14.915514  3.864037  
C 2.702250   14.915240  5.264051  
C 4.510239   16.531495  3.864457  
C 4.510147   16.531368  5.264444  
C 5.414311   17.339653  3.164647  
C 6.318151   18.147624  3.864850  
C 6.318045   18.147379  5.264918  
C 5.414036   17.339251  5.964647  
N 3.606365   15.723613  3.164263  
H 4.866528   26.445843  2.199080  
H 5.413835   17.339025  7.104584  
H 4.594447   24.363702  3.411320  
H 9.698799   19.110681  9.129038  
H 14.013976  27.097747  9.129659  
H 16.658865  27.403568  3.293548  
H 4.265079   21.844995  3.411147  
H 16.090532  28.349461  9.129732  
H 3.445391   28.869604  2.023897  
H 9.351757   28.222494  9.129567  
H 3.992939   19.762733  2.198633  
H 3.992895   19.762815  6.929803  
H 12.238222  19.158864  9.129211  
H 11.474277  27.049889  9.129714  
H 4.265097   21.845118  5.717462  
H 14.360768  17.986082  9.129339  
H 4.594200   24.363574  5.717298  
H 7.054181   18.805193  5.834942  
H 4.866445   26.445851  6.929985  
H 5.414344   17.339702  2.024709  
H 7.054229   18.805487  3.294954  
H 16.658725  27.403259  5.833572  
H 3.444874   28.868985  7.103771  
H 7.622082   17.858849  9.129120  
O 3.718149   17.660561  10.241374 
O 5.140991   28.548124  10.241584 
O 16.522060  15.826841  10.241511 
O 5.543869   15.619848  10.241438 
O 16.521774  15.826560  17.147684 
O 5.140707   28.547859  17.147757 
O 3.717864   17.660281  17.147547 
Cu 3.605884   15.723053  16.944572 
Cu 3.606177   15.723356  10.444560 
O 5.543585   15.619582  17.147611 
C 5.075986   28.052073  18.259847 
C 4.882903   26.574633  18.259929 
C 16.021836  15.817241  18.259792 
C 14.532111  15.789135  18.259911 
C 4.066684   20.327801  10.341771 
C 4.066438   20.327834  17.047242 
C 4.247850   21.715964  17.047278 
C 4.338582   22.409993  18.259737 
C 4.248139   21.716064  10.341844 
C 4.338657   22.410153  15.834883 
C 4.520093   23.798371  15.834874 
C 4.610740   24.492430  17.047351 
C 4.520038   23.798256  18.259811 
C 4.611005   24.492441  10.341963 
C 4.520217   23.798296  11.554449 
C 4.338786   22.410123  11.554321 
C 4.792171   25.880604  17.047479 
C 4.792461   25.880703  10.342045 
C 9.902805   29.220101  18.259728 
C 8.210383   16.882511  18.259601 
C 9.610056   16.908935  18.259674 
C 10.332803  15.709936  18.259756 
C 11.302623  29.246495  18.259765 
C 10.287117  18.134358  18.259537 
C 11.686884  18.160826  18.259591 
C 12.409644  16.961813  18.259774 
C 11.732605  15.736316  18.259792 
C 14.102130  29.299314  18.259874 
C 13.425106  28.073817  18.259993 
C 12.025382  28.047467  18.259938 
C 13.809381  16.988148  18.259829 
C 15.501932  29.325694  18.259911 
C 6.043557   15.629011  18.259674 
C 7.533296   15.657118  18.259646 
C 3.782634   18.156176  18.259619 
C 3.975716   19.633616  18.259619 
N 3.605854   15.723055  15.094561 
C 3.444846   28.868982  15.094141 
C 17.394539  28.061099  14.393938 
C 17.394582  28.061315  12.993952 
C 3.445087   28.869473  12.294141 
C 2.702183   14.915359  12.994344 
C 2.702015   14.915084  14.394358 
C 4.510004   16.531340  12.994764 
C 4.509912   16.531212  14.394751 
C 5.414076   17.339497  12.294954 
C 6.317916   18.147468  12.995157 
C 6.317810   18.147223  14.395225 
C 5.413801   17.339095  15.094954 
N 3.606129   15.723457  12.294570 
H 4.866292   26.445687  11.329387 
H 5.413600   17.338869  16.234891 
H 4.594212   24.363546  12.541627 
H 9.698564   19.110525  18.259345 
H 14.013741  27.097592  18.259966 
H 16.658630  27.403412  12.423855 
H 4.264844   21.844839  12.541454 
H 16.090296  28.349306  18.260039 
H 3.445156   28.869448  11.154204 
H 9.351522   28.222338  18.259874 
H 3.992704   19.762577  11.328940 
H 3.992659   19.762659  16.060110 
H 12.237987  19.158708  18.259518 
H 11.474042  27.049733  18.260021 
H 4.264862   21.844962  14.847769 
H 14.360533  17.985926  18.259646 
H 4.593964   24.363418  14.847605 
H 7.053945   18.805037  14.965249 
H 4.866210   26.445695  16.060292 
H 5.414108   17.339546  11.155016 
H 7.053994   18.805331  12.425261 
H 16.658490  27.403103  14.963879 
H 3.444639   28.868830  16.234078 
H 7.621847   17.858693  18.259427 
O 3.717914   17.660405  19.371681 
O 5.140755   28.547968  19.371891 
O 16.521824  15.826685  19.371818 
O 5.543633   15.619692  19.371745 
O 16.521539  15.826405  26.277991 
O 5.140472   28.547703  26.278064 
O 3.717629   17.660125  26.277854 
Cu 3.605649   15.722897  26.074879 
Cu 3.605942   15.723200  19.574867 
O 5.543350   15.619427  26.277918 
C 5.075750   28.051917  27.390154 
C 4.882668   26.574477  27.390236 
C 16.021601  15.817085  27.390099 
C 14.531876  15.788979  27.390218 
C 4.066448   20.327645  19.472078 
C 4.066203   20.327679  26.177549 
C 4.247614   21.715808  26.177585 
C 4.338346   22.409837  27.390044 
C 4.247904   21.715908  19.472151 
C 4.338422   22.409997  24.965190 
C 4.519858   23.798215  24.965181 
C 4.610505   24.492274  26.177658 
C 4.519802   23.798100  27.390118 
C 4.610770   24.492285  19.472270 
C 4.519982   23.798141  20.684756 
C 4.338551   22.409967  20.684628 
C 4.791936   25.880448  26.177786 
C 4.792226   25.880548  19.472352 
C 9.902570   29.219945  27.390035 
C 8.210148   16.882355  27.389908 
C 9.609821   16.908779  27.389981 
C 10.332568  15.709781  27.390063 
C 11.302388  29.246339  27.390072 
C 10.286881  18.134202  27.389844 
C 11.686649  18.160671  27.389898 
C 12.409409  16.961657  27.390081 
C 11.732370  15.736160  27.390099 
C 14.101895  29.299158  27.390181 
C 13.424871  28.073661  27.390300 
C 12.025146  28.047311  27.390245 
C 13.809146  16.987992  27.390136 
C 15.501697  29.325538  27.390218 
C 6.043321   15.628855  27.389981 
C 7.533061   15.656962  27.389953 
C 3.782398   18.156020  27.389926 
C 3.975481   19.633460  27.389926 
N 3.605619   15.722899  24.224868 
C 3.444611   28.868826  24.224448 
C 17.394304  28.060943  23.524245 
C 17.394346  28.061159  22.124259 
C 3.444851   28.869317  21.424448 
C 2.701947   14.915203  22.124651 
C 2.701779   14.914928  23.524665 
C 4.509769   16.531184  22.125071 
C 4.509676   16.531056  23.525058 
C 5.413841   17.339341  21.425261 
C 6.317680   18.147312  22.125464 
C 6.317575   18.147067  23.525532 
C 5.413566   17.338939  24.225261 
N 3.605894   15.723301  21.424877 
H 4.866057   26.445531  20.459694 
H 5.413365   17.338713  25.365198 
H 4.593977   24.363390  21.671934 
H 9.698329   19.110369  27.389652 
H 14.013506  27.097436  27.390273 
H 16.658394  27.403256  21.554162 
H 4.264609   21.844683  21.671761 
H 16.090061  28.349150  27.390346 
H 3.444920   28.869292  20.284511 
H 9.351286   28.222182  27.390181 
H 3.992469   19.762421  20.459247 
H 3.992424   19.762503  25.190417 
H 12.237752  19.158552  27.389825 
H 11.473807  27.049577  27.390328 
H 4.264627   21.844806  23.978076 
H 14.360297  17.985770  27.389953 
H 4.593729   24.363262  23.977912 
H 7.053710   18.804881  24.095556 
H 4.865975   26.445539  25.190599 
H 5.413873   17.339390  20.285323 
H 7.053759   18.805176  21.555568 
H 16.658255  27.402947  24.094186 
H 3.444404   28.868674  25.364385 
H 7.621612   17.858537  27.389734 
O 16.925173  2.898720   1.111067  
O 18.348014  13.786283  1.111277  
O 29.729083  1.065000   1.111204  
O 18.750893  0.858007   1.111131  
O 29.728798  1.064720   8.017377  
O 18.347731  13.786018  8.017450  
O 16.924888  2.898440   8.017240  
Cu 16.812908  0.961212   7.814265  
Cu 16.813201  0.961515   1.314253  
O 18.750609  0.857742   8.017304  
C 18.283009  13.290232  9.129540  
C 18.089927  11.812792  9.129622  
C 29.228860  1.055401   9.129485  
C 27.739135  1.027294   9.129604  
C 17.273707  5.565961   1.211464  
C 17.273462  5.565994   7.916935  
C 17.454873  6.954123   7.916971  
C 17.545606  7.648153   9.129430  
C 17.455163  6.954223   1.211537  
C 17.545681  7.648312   6.704576  
C 17.727117  9.036530   6.704567  
C 17.817764  9.730589   7.917044  
C 17.727061  9.036415   9.129504  
C 17.818029  9.730600   1.211656  
C 17.727241  9.036456   2.424142  
C 17.545810  7.648282   2.424014  
C 17.999195  11.118763  7.917172  
C 17.999485  11.118863  1.211738  
C 23.109829  14.458260  9.129421  
C 21.417407  2.120671   9.129294  
C 22.817080  2.147095   9.129367  
C 23.539827  0.948096   9.129449  
C 24.509647  14.484655  9.129458  
C 23.494141  3.372517   9.129230  
C 24.893908  3.398986   9.129284  
C 25.616668  2.199972   9.129467  
C 24.939629  0.974475   9.129485  
C 27.309154  14.537473  9.129567  
C 26.632130  13.311976  9.129686  
C 25.232405  13.285626  9.129631  
C 27.016405  2.226307   9.129522  
C 28.708956  14.563853  9.129604  
C 19.250580  0.867170   9.129367  
C 20.740320  0.895277   9.129339  
C 16.989657  3.394336   9.129312  
C 17.182740  4.871775   9.129312  
N 16.812878  0.961214   5.964254  
C 16.651870  14.107141  5.963834  
C 30.601563  13.299259  5.263631  
C 30.601605  13.299474  3.863645  
C 16.652110  14.107632  3.163834  
C 15.909207  0.153518   3.864037  
C 15.909038  0.153243   5.264051  
C 17.717028  1.769499   3.864457  
C 17.716935  1.769372   5.264444  
C 18.621100  2.577656   3.164647  
C 19.524939  3.385627   3.864850  
C 19.524834  3.385382   5.264918  
C 18.620825  2.577254   5.964647  
N 16.813153  0.961616   3.164263  
H 18.073316  11.683847  2.199080  
H 18.620624  2.577028   7.104584  
H 17.801236  9.601705   3.411320  
H 22.905588  4.348684   9.129038  
H 27.220765  12.335751  9.129659  
H 29.865653  12.641571  3.293548  
H 17.471868  7.082999   3.411147  
H 29.297320  13.587465  9.129732  
H 16.652179  14.107607  2.023897  
H 22.558546  13.460497  9.129567  
H 17.199728  5.000736   2.198633  
H 17.199683  5.000818   6.929803  
H 25.445011  4.396867   9.129211  
H 24.681066  12.287892  9.129714  
H 17.471886  7.083122   5.717462  
H 27.567556  3.224086   9.129339  
H 17.800988  9.601577   5.717298  
H 20.260969  4.043196   5.834942  
H 18.073234  11.683854  6.929985  
H 18.621132  2.577705   2.024709  
H 20.261018  4.043491   3.294954  
H 29.865514  12.641262  5.833572  
H 16.651663  14.106989  7.103771  
H 20.828871  3.096852   9.129120  
O 16.924938  2.898565   10.241374 
O 18.347779  13.786128  10.241584 
O 29.728848  1.064844   10.241511 
O 18.750657  0.857851   10.241438 
O 29.728563  1.064564   17.147684 
O 18.347496  13.785862  17.147757 
O 16.924652  2.898284   17.147547 
Cu 16.812673  0.961056   16.944572 
Cu 16.812966  0.961359   10.444560 
O 18.750374  0.857586   17.147611 
C 18.282774  13.290076  18.259847 
C 18.089692  11.812636  18.259929 
C 29.228625  1.055245   18.259792 
C 27.738900  1.027138   18.259911 
C 17.273472  5.565805   10.341771 
C 17.273227  5.565838   17.047242 
C 17.454638  6.953967   17.047278 
C 17.545370  7.647997   18.259737 
C 17.454928  6.954067   10.341844 
C 17.545446  7.648156   15.834883 
C 17.726882  9.036374   15.834874 
C 17.817528  9.730433   17.047351 
C 17.726826  9.036259   18.259811 
C 17.817794  9.730444   10.341963 
C 17.727006  9.036300   11.554449 
C 17.545574  7.648126   11.554321 
C 17.998960  11.118607  17.047479 
C 17.999249  11.118707  10.342045 
C 23.109594  14.458104  18.259728 
C 21.417172  2.120515   18.259601 
C 22.816845  2.146939   18.259674 
C 23.539592  0.947940   18.259756 
C 24.509412  14.484499  18.259765 
C 23.493905  3.372362   18.259537 
C 24.893673  3.398830   18.259591 
C 25.616432  2.199816   18.259774 
C 24.939394  0.974319   18.259792 
C 27.308919  14.537317  18.259874 
C 26.631895  13.311821  18.259993 
C 25.232170  13.285470  18.259938 
C 27.016170  2.226152   18.259829 
C 28.708720  14.563697  18.259911 
C 19.250345  0.867015   18.259674 
C 20.740085  0.895121   18.259646 
C 16.989422  3.394180   18.259619 
C 17.182505  4.871619   18.259619 
N 16.812643  0.961058   15.094561 
C 16.651635  14.106985  15.094141 
C 30.601328  13.299103  14.393938 
C 30.601370  13.299318  12.993952 
C 16.651875  14.107476  12.294141 
C 15.908971  0.153362   12.994344 
C 15.908803  0.153087   14.394358 
C 17.716792  1.769343   12.994764 
C 17.716700  1.769216   14.394751 
C 18.620864  2.577500   12.294954 
C 19.524704  3.385472   12.995157 
C 19.524599  3.385226   14.395225 
C 18.620589  2.577098   15.094954 
N 16.812918  0.961460   12.294570 
H 18.073081  11.683691  11.329387 
H 18.620388  2.576872   16.234891 
H 17.801000  9.601549   12.541627 
H 22.905353  4.348528   18.259345 
H 27.220530  12.335595  18.259966 
H 29.865418  12.641416  12.423855 
H 17.471633  7.082843   12.541454 
H 29.297085  13.587309  18.260039 
H 16.651944  14.107451  11.154204 
H 22.558310  13.460341  18.259874 
H 17.199492  5.000581   11.328940 
H 17.199448  5.000662   16.060110 
H 25.444776  4.396711   18.259518 
H 24.680831  12.287737  18.260021 
H 17.471651  7.082966   14.847769 
H 27.567321  3.223930   18.259646 
H 17.800753  9.601421   14.847605 
H 20.260734  4.043041   14.965249 
H 18.072999  11.683698  16.060292 
H 18.620897  2.577549   11.155016 
H 20.260783  4.043335   12.425261 
H 29.865279  12.641106  14.963879 
H 16.651427  14.106833  16.234078 
H 20.828636  3.096696   18.259427 
O 16.924702  2.898409   19.371681 
O 18.347544  13.785972  19.371891 
O 29.728613  1.064688   19.371818 
O 18.750422  0.857695   19.371745 
O 29.728328  1.064408   26.277991 
O 18.347261  13.785706  26.278064 
O 16.924417  2.898128   26.277854 
Cu 16.812438  0.960900   26.074879 
Cu 16.812730  0.961203   19.574867 
O 18.750139  0.857430   26.277918 
C 18.282539  13.289920  27.390154 
C 18.089457  11.812481  27.390236 
C 29.228390  1.055089   27.390099 
C 27.738665  1.026982   27.390218 
C 17.273237  5.565649   19.472078 
C 17.272992  5.565682   26.177549 
C 17.454403  6.953811   26.177585 
C 17.545135  7.647841   27.390044 
C 17.454693  6.953911   19.472151 
C 17.545211  7.648000   24.965190 
C 17.726647  9.036218   24.965181 
C 17.817293  9.730277   26.177658 
C 17.726591  9.036103   27.390118 
C 17.817558  9.730289   19.472270 
C 17.726770  9.036144   20.684756 
C 17.545339  7.647970   20.684628 
C 17.998724  11.118451  26.177786 
C 17.999014  11.118551  19.472352 
C 23.109358  14.457948  27.390035 
C 21.416937  2.120359   27.389908 
C 22.816610  2.146783   27.389981 
C 23.539356  0.947784   27.390063 
C 24.509177  14.484343  27.390072 
C 23.493670  3.372206   27.389844 
C 24.893437  3.398674   27.389898 
C 25.616197  2.199660   27.390081 
C 24.939158  0.974164   27.390099 
C 27.308683  14.537161  27.390181 
C 26.631659  13.311665  27.390300 
C 25.231935  13.285314  27.390245 
C 27.015935  2.225996   27.390136 
C 28.708485  14.563541  27.390218 
C 19.250110  0.866859   27.389981 
C 20.739850  0.894965   27.389953 
C 16.989187  3.394024   27.389926 
C 17.182270  4.871464   27.389926 
N 16.812408  0.960902   24.224868 
C 16.651400  14.106829  24.224448 
C 30.601092  13.298947  23.524245 
C 30.601135  13.299163  22.124259 
C 16.651640  14.107320  21.424448 
C 15.908736  0.153206   22.124651 
C 15.908568  0.152931   23.524665 
C 17.716557  1.769187   22.125071 
C 17.716465  1.769060   23.525058 
C 18.620629  2.577344   21.425261 
C 19.524469  3.385316   22.125464 
C 19.524364  3.385070   23.525532 
C 18.620354  2.576942   24.225261 
N 16.812683  0.961304   21.424877 
H 18.072846  11.683535  20.459694 
H 18.620153  2.576716   25.365198 
H 17.800765  9.601393   21.671934 
H 22.905117  4.348372   27.389652 
H 27.220295  12.335439  27.390273 
H 29.865183  12.641260  21.554162 
H 17.471397  7.082687   21.671761 
H 29.296850  13.587153  27.390346 
H 16.651709  14.107295  20.284511 
H 22.558075  13.460185  27.390181 
H 17.199257  5.000425   20.459247 
H 17.199213  5.000506   25.190417 
H 25.444541  4.396555   27.389825 
H 24.680596  12.287581  27.390328 
H 17.471416  7.082810   23.978076 
H 27.567086  3.223774   27.389953 
H 17.800518  9.601266   23.977912 
H 20.260499  4.042885   24.095556 
H 18.072764  11.683543  25.190599 
H 18.620662  2.577393   20.285323 
H 20.260548  4.043179   21.555568 
H 29.865043  12.640951  24.094186 
H 16.651192  14.106677  25.364385 
H 20.828400  3.096540   27.389734 
O 18.571951  17.660717  1.111067  
O 19.994793  28.548280  1.111277  
O 31.375862  15.826997  1.111204  
O 20.397671  15.620004  1.111131  
O 31.375577  15.826716  8.017377  
O 19.994509  28.548015  8.017450  
O 18.571666  17.660437  8.017240  
Cu 18.459686  15.723209  7.814265  
Cu 18.459979  15.723512  1.314253  
O 20.397387  15.619738  8.017304  
C 19.929788  28.052229  9.129540  
C 19.736705  26.574789  9.129622  
C 30.875639  15.817397  9.129485  
C 29.385914  15.789290  9.129604  
C 18.920486  20.327957  1.211464  
C 18.920240  20.327990  7.916935  
C 19.101652  21.716120  7.916971  
C 19.192384  22.410149  9.129430  
C 19.101942  21.716220  1.211537  
C 19.192460  22.410309  6.704576  
C 19.373896  23.798527  6.704567  
C 19.464542  24.492586  7.917044  
C 19.373840  23.798412  9.129504  
C 19.464807  24.492597  1.211656  
C 19.374019  23.798452  2.424142  
C 19.192588  22.410279  2.424014  
C 19.645973  25.880760  7.917172  
C 19.646263  25.880859  1.211738  
C 24.756607  29.220257  9.129421  
C 23.064185  16.882667  9.129294  
C 24.463859  16.909091  9.129367  
C 25.186605  15.710092  9.129449  
C 26.156426  29.246651  9.129458  
C 25.140919  18.134514  9.129230  
C 26.540686  18.160982  9.129284  
C 27.263446  16.961969  9.129467  
C 26.586407  15.736472  9.129485  
C 28.955932  29.299470  9.129567  
C 28.278908  28.073973  9.129686  
C 26.879184  28.047623  9.129631  
C 28.663184  16.988304  9.129522  
C 30.355734  29.325849  9.129604  
C 20.897359  15.629167  9.129367  
C 22.387099  15.657274  9.129339  
C 18.636436  18.156332  9.129312  
C 18.829518  19.633772  9.129312  
N 18.459657  15.723211  5.964254  
C 18.298648  28.869138  5.963834  
C 32.248341  28.061255  5.263631  
C 32.248384  28.061471  3.863645  
C 18.298889  28.869628  3.163834  
C 17.555985  14.915514  3.864037  
C 17.555817  14.915240  5.264051  
C 19.363806  16.531495  3.864457  
C 19.363714  16.531368  5.264444  
C 20.267878  17.339653  3.164647  
C 21.171718  18.147624  3.864850  
C 21.171612  18.147379  5.264918  
C 20.267603  17.339251  5.964647  
N 18.459932  15.723613  3.164263  
H 19.720095  26.445843  2.199080  
H 20.267402  17.339025  7.104584  
H 19.448014  24.363702  3.411320  
H 24.552366  19.110681  9.129038  
H 28.867543  27.097747  9.129659  
H 31.512432  27.403568  3.293548  
H 19.118646  21.844995  3.411147  
H 30.944099  28.349461  9.129732  
H 18.298958  28.869604  2.023897  
H 24.205324  28.222494  9.129567  
H 18.846506  19.762733  2.198633  
H 18.846462  19.762815  6.929803  
H 27.091789  19.158864  9.129211  
H 26.327844  27.049889  9.129714  
H 19.118664  21.845118  5.717462  
H 29.214335  17.986082  9.129339  
H 19.447767  24.363574  5.717298  
H 21.907748  18.805193  5.834942  
H 19.720012  26.445851  6.929985  
H 20.267911  17.339702  2.024709  
H 21.907796  18.805487  3.294954  
H 31.512292  27.403259  5.833572  
H 18.298441  28.868985  7.103771  
H 22.475649  17.858849  9.129120  
O 18.571716  17.660561  10.241374 
O 19.994558  28.548124  10.241584 
O 31.375627  15.826841  10.241511 
O 20.397436  15.619848  10.241438 
O 31.375341  15.826560  17.147684 
O 19.994274  28.547859  17.147757 
O 18.571431  17.660281  17.147547 
Cu 18.459451  15.723053  16.944572 
Cu 18.459744  15.723356  10.444560 
O 20.397152  15.619582  17.147611 
C 19.929553  28.052073  18.259847 
C 19.736470  26.574633  18.259929 
C 30.875403  15.817241  18.259792 
C 29.385678  15.789135  18.259911 
C 18.920251  20.327801  10.341771 
C 18.920005  20.327834  17.047242 
C 19.101417  21.715964  17.047278 
C 19.192149  22.409993  18.259737 
C 19.101706  21.716064  10.341844 
C 19.192224  22.410153  15.834883 
C 19.373660  23.798371  15.834874 
C 19.464307  24.492430  17.047351 
C 19.373605  23.798256  18.259811 
C 19.464572  24.492441  10.341963 
C 19.373784  23.798296  11.554449 
C 19.192353  22.410123  11.554321 
C 19.645738  25.880604  17.047479 
C 19.646028  25.880703  10.342045 
C 24.756372  29.220101  18.259728 
C 23.063950  16.882511  18.259601 
C 24.463623  16.908935  18.259674 
C 25.186370  15.709936  18.259756 
C 26.156190  29.246495  18.259765 
C 25.140684  18.134358  18.259537 
C 26.540451  18.160826  18.259591 
C 27.263211  16.961813  18.259774 
C 26.586172  15.736316  18.259792 
C 28.955697  29.299314  18.259874 
C 28.278673  28.073817  18.259993 
C 26.878949  28.047467  18.259938 
C 28.662948  16.988148  18.259829 
C 30.355499  29.325694  18.259911 
C 20.897124  15.629011  18.259674 
C 22.386863  15.657118  18.259646 
C 18.636201  18.156176  18.259619 
C 18.829283  19.633616  18.259619 
N 18.459421  15.723055  15.094561 
C 18.298413  28.868982  15.094141 
C 32.248106  28.061099  14.393938 
C 32.248149  28.061315  12.993952 
C 18.298654  28.869473  12.294141 
C 17.555750  14.915359  12.994344 
C 17.555582  14.915084  14.394358 
C 19.363571  16.531340  12.994764 
C 19.363479  16.531212  14.394751 
C 20.267643  17.339497  12.294954 
C 21.171483  18.147468  12.995157 
C 21.171377  18.147223  14.395225 
C 20.267368  17.339095  15.094954 
N 18.459696  15.723457  12.294570 
H 19.719859  26.445687  11.329387 
H 20.267167  17.338869  16.234891 
H 19.447779  24.363546  12.541627 
H 24.552131  19.110525  18.259345 
H 28.867308  27.097592  18.259966 
H 31.512197  27.403412  12.423855 
H 19.118411  21.844839  12.541454 
H 30.943863  28.349306  18.260039 
H 18.298723  28.869448  11.154204 
H 24.205089  28.222338  18.259874 
H 18.846271  19.762577  11.328940 
H 18.846226  19.762659  16.060110 
H 27.091554  19.158708  18.259518 
H 26.327609  27.049733  18.260021 
H 19.118429  21.844962  14.847769 
H 29.214100  17.985926  18.259646 
H 19.447531  24.363418  14.847605 
H 21.907512  18.805037  14.965249 
H 19.719777  26.445695  16.060292 
H 20.267675  17.339546  11.155016 
H 21.907561  18.805331  12.425261 
H 31.512057  27.403103  14.963879 
H 18.298206  28.868830  16.234078 
H 22.475414  17.858693  18.259427 
O 18.571481  17.660405  19.371681 
O 19.994322  28.547968  19.371891 
O 31.375391  15.826685  19.371818 
O 20.397200  15.619692  19.371745 
O 31.375106  15.826405  26.277991 
O 19.994039  28.547703  26.278064 
O 18.571196  17.660125  26.277854 
Cu 18.459216  15.722897  26.074879 
Cu 18.459509  15.723200  19.574867 
O 20.396917  15.619427  26.277918 
C 19.929317  28.051917  27.390154 
C 19.736235  26.574477  27.390236 
C 30.875168  15.817085  27.390099 
C 29.385443  15.788979  27.390218 
C 18.920015  20.327645  19.472078 
C 18.919770  20.327679  26.177549 
C 19.101181  21.715808  26.177585 
C 19.191913  22.409837  27.390044 
C 19.101471  21.715908  19.472151 
C 19.191989  22.409997  24.965190 
C 19.373425  23.798215  24.965181 
C 19.464072  24.492274  26.177658 
C 19.373369  23.798100  27.390118 
C 19.464337  24.492285  19.472270 
C 19.373549  23.798141  20.684756 
C 19.192118  22.409967  20.684628 
C 19.645503  25.880448  26.177786 
C 19.645793  25.880548  19.472352 
C 24.756137  29.219945  27.390035 
C 23.063715  16.882355  27.389908 
C 24.463388  16.908779  27.389981 
C 25.186135  15.709781  27.390063 
C 26.155955  29.246339  27.390072 
C 25.140448  18.134202  27.389844 
C 26.540216  18.160671  27.389898 
C 27.262976  16.961657  27.390081 
C 26.585937  15.736160  27.390099 
C 28.955462  29.299158  27.390181 
C 28.278438  28.073661  27.390300 
C 26.878713  28.047311  27.390245 
C 28.662713  16.987992  27.390136 
C 30.355264  29.325538  27.390218 
C 20.896888  15.628855  27.389981 
C 22.386628  15.656962  27.389953 
C 18.635965  18.156020  27.389926 
C 18.829048  19.633460  27.389926 
N 18.459186  15.722899  24.224868 
C 18.298178  28.868826  24.224448 
C 32.247871  28.060943  23.524245 
C 32.247913  28.061159  22.124259 
C 18.298418  28.869317  21.424448 
C 17.555514  14.915203  22.124651 
C 17.555346  14.914928  23.524665 
C 19.363336  16.531184  22.125071 
C 19.363243  16.531056  23.525058 
C 20.267408  17.339341  21.425261 
C 21.171247  18.147312  22.125464 
C 21.171142  18.147067  23.525532 
C 20.267133  17.338939  24.225261 
N 18.459461  15.723301  21.424877 
H 19.719624  26.445531  20.459694 
H 20.266932  17.338713  25.365198 
H 19.447544  24.363390  21.671934 
H 24.551896  19.110369  27.389652 
H 28.867073  27.097436  27.390273 
H 31.511961  27.403256  21.554162 
H 19.118176  21.844683  21.671761 
H 30.943628  28.349150  27.390346 
H 18.298487  28.869292  20.284511 
H 24.204853  28.222182  27.390181 
H 18.846036  19.762421  20.459247 
H 18.845991  19.762503  25.190417 
H 27.091319  19.158552  27.389825 
H 26.327374  27.049577  27.390328 
H 19.118194  21.844806  23.978076 
H 29.213864  17.985770  27.389953 
H 19.447296  24.363262  23.977912 
H 21.907277  18.804881  24.095556 
H 19.719542  26.445539  25.190599 
H 20.267440  17.339390  20.285323 
H 21.907326  18.805176  21.555568 
H 31.511822  27.402947  24.094186 
H 18.297971  28.868674  25.364385 
H 22.475179  17.858537  27.389734 
